125

Ar	-1.52	-0.8775724091682311	-0.6205374015050718
Ar	-1.1400000000000001	-0.8775724091682311	-0.6205374015050718
Ar	-0.76	-0.8775724091682311	-0.6205374015050718
Ar	-0.38	-0.8775724091682311	-0.6205374015050718
Ar	0.0	-0.8775724091682311	-0.6205374015050718
Ar	-1.33	-0.5484827557301444	-0.6205374015050718
Ar	-0.9500000000000001	-0.5484827557301444	-0.6205374015050718
Ar	-0.5700000000000001	-0.5484827557301444	-0.6205374015050718
Ar	-0.19	-0.5484827557301444	-0.6205374015050718
Ar	0.19000000000000006	-0.5484827557301444	-0.6205374015050718
Ar	-1.1400000000000001	-0.21939310229205777	-0.6205374015050718
Ar	-0.76	-0.21939310229205777	-0.6205374015050718
Ar	-0.38	-0.21939310229205777	-0.6205374015050718
Ar	0.0	-0.21939310229205777	-0.6205374015050718
Ar	0.38	-0.21939310229205777	-0.6205374015050718
Ar	-0.9500000000000001	0.10969655114602889	-0.6205374015050718
Ar	-0.5700000000000001	0.10969655114602889	-0.6205374015050718
Ar	-0.19	0.10969655114602889	-0.6205374015050718
Ar	0.19000000000000006	0.10969655114602889	-0.6205374015050718
Ar	0.57	0.10969655114602889	-0.6205374015050718
Ar	-0.76	0.43878620458411555	-0.6205374015050718
Ar	-0.38	0.43878620458411555	-0.6205374015050718
Ar	0.0	0.43878620458411555	-0.6205374015050718
Ar	0.38	0.43878620458411555	-0.6205374015050718
Ar	0.7600000000000001	0.43878620458411555	-0.6205374015050718
Ar	-1.33	-0.7678758580222023	-0.3102687007525359
Ar	-0.95	-0.7678758580222023	-0.3102687007525359
Ar	-0.5700000000000001	-0.7678758580222023	-0.3102687007525359
Ar	-0.19	-0.7678758580222023	-0.3102687007525359
Ar	0.19	-0.7678758580222023	-0.3102687007525359
Ar	-1.14	-0.43878620458411555	-0.3102687007525359
Ar	-0.76	-0.43878620458411555	-0.3102687007525359
Ar	-0.38	-0.43878620458411555	-0.3102687007525359
Ar	0.0	-0.43878620458411555	-0.3102687007525359
Ar	0.38000000000000006	-0.43878620458411555	-0.3102687007525359
Ar	-0.95	-0.10969655114602889	-0.3102687007525359
Ar	-0.5700000000000001	-0.10969655114602889	-0.3102687007525359
Ar	-0.19	-0.10969655114602889	-0.3102687007525359
Ar	0.19	-0.10969655114602889	-0.3102687007525359
Ar	0.5700000000000001	-0.10969655114602889	-0.3102687007525359
Ar	-0.76	0.21939310229205777	-0.3102687007525359
Ar	-0.38	0.21939310229205777	-0.3102687007525359
Ar	0.0	0.21939310229205777	-0.3102687007525359
Ar	0.38000000000000006	0.21939310229205777	-0.3102687007525359
Ar	0.76	0.21939310229205777	-0.3102687007525359
Ar	-0.5700000000000001	0.5484827557301444	-0.3102687007525359
Ar	-0.19	0.5484827557301444	-0.3102687007525359
Ar	0.19	0.5484827557301444	-0.3102687007525359
Ar	0.5700000000000001	0.5484827557301444	-0.3102687007525359
Ar	0.9500000000000002	0.5484827557301444	-0.3102687007525359
Ar	-1.1400000000000001	-0.6581793068761733	0.0
Ar	-0.76	-0.6581793068761733	0.0
Ar	-0.38	-0.6581793068761733	0.0
Ar	0.0	-0.6581793068761733	0.0
Ar	0.38	-0.6581793068761733	0.0
Ar	-0.95	-0.32908965343808666	0.0
Ar	-0.5700000000000001	-0.32908965343808666	0.0
Ar	-0.19	-0.32908965343808666	0.0
Ar	0.19	-0.32908965343808666	0.0
Ar	0.5700000000000001	-0.32908965343808666	0.0
Ar	-0.76	0.0	0.0
Ar	-0.38	0.0	0.0
Ar	0.0	0.0	0.0
Ar	0.38	0.0	0.0
Ar	0.76	0.0	0.0
Ar	-0.5700000000000001	0.32908965343808666	0.0
Ar	-0.19	0.32908965343808666	0.0
Ar	0.19	0.32908965343808666	0.0
Ar	0.5700000000000001	0.32908965343808666	0.0
Ar	0.95	0.32908965343808666	0.0
Ar	-0.38	0.6581793068761733	0.0
Ar	0.0	0.6581793068761733	0.0
Ar	0.38	0.6581793068761733	0.0
Ar	0.76	0.6581793068761733	0.0
Ar	1.1400000000000001	0.6581793068761733	0.0
Ar	-0.9500000000000002	-0.5484827557301444	0.3102687007525359
Ar	-0.5700000000000001	-0.5484827557301444	0.3102687007525359
Ar	-0.19	-0.5484827557301444	0.3102687007525359
Ar	0.19	-0.5484827557301444	0.3102687007525359
Ar	0.5700000000000001	-0.5484827557301444	0.3102687007525359
Ar	-0.76	-0.21939310229205777	0.3102687007525359
Ar	-0.38000000000000006	-0.21939310229205777	0.3102687007525359
Ar	0.0	-0.21939310229205777	0.3102687007525359
Ar	0.38	-0.21939310229205777	0.3102687007525359
Ar	0.76	-0.21939310229205777	0.3102687007525359
Ar	-0.5700000000000001	0.10969655114602889	0.3102687007525359
Ar	-0.19	0.10969655114602889	0.3102687007525359
Ar	0.19	0.10969655114602889	0.3102687007525359
Ar	0.5700000000000001	0.10969655114602889	0.3102687007525359
Ar	0.95	0.10969655114602889	0.3102687007525359
Ar	-0.38000000000000006	0.43878620458411555	0.3102687007525359
Ar	0.0	0.43878620458411555	0.3102687007525359
Ar	0.38	0.43878620458411555	0.3102687007525359
Ar	0.76	0.43878620458411555	0.3102687007525359
Ar	1.14	0.43878620458411555	0.3102687007525359
Ar	-0.19	0.7678758580222023	0.3102687007525359
Ar	0.19	0.7678758580222023	0.3102687007525359
Ar	0.5700000000000001	0.7678758580222023	0.3102687007525359
Ar	0.95	0.7678758580222023	0.3102687007525359
Ar	1.33	0.7678758580222023	0.3102687007525359
Ar	-0.7600000000000001	-0.43878620458411555	0.6205374015050718
Ar	-0.38	-0.43878620458411555	0.6205374015050718
Ar	0.0	-0.43878620458411555	0.6205374015050718
Ar	0.38	-0.43878620458411555	0.6205374015050718
Ar	0.76	-0.43878620458411555	0.6205374015050718
Ar	-0.57	-0.10969655114602889	0.6205374015050718
Ar	-0.19000000000000006	-0.10969655114602889	0.6205374015050718
Ar	0.19	-0.10969655114602889	0.6205374015050718
Ar	0.5700000000000001	-0.10969655114602889	0.6205374015050718
Ar	0.9500000000000001	-0.10969655114602889	0.6205374015050718
Ar	-0.38	0.21939310229205777	0.6205374015050718
Ar	0.0	0.21939310229205777	0.6205374015050718
Ar	0.38	0.21939310229205777	0.6205374015050718
Ar	0.76	0.21939310229205777	0.6205374015050718
Ar	1.1400000000000001	0.21939310229205777	0.6205374015050718
Ar	-0.19000000000000006	0.5484827557301444	0.6205374015050718
Ar	0.19	0.5484827557301444	0.6205374015050718
Ar	0.5700000000000001	0.5484827557301444	0.6205374015050718
Ar	0.9500000000000001	0.5484827557301444	0.6205374015050718
Ar	1.33	0.5484827557301444	0.6205374015050718
Ar	0.0	0.8775724091682311	0.6205374015050718
Ar	0.38	0.8775724091682311	0.6205374015050718
Ar	0.76	0.8775724091682311	0.6205374015050718
Ar	1.1400000000000001	0.8775724091682311	0.6205374015050718
Ar	1.52	0.8775724091682311	0.6205374015050718
